#
# This file was generated using the following command:
# obabel -imol2 initial_data/4lys_D_2SJ.mol2 -omol2 -Oprepared_data/4lys_D_2SJ_protonated_vacuum.mol2 -p 7.4
#
@<TRIPOS>MOLECULE
2SJ
 51 53 0 0 0
SMALL
USER_CHARGES

@<TRIPOS>ATOM
      1 O4          6.9190   54.0140    4.4070 O.2     1  2SJ1       -0.2761
      2 C12         6.3190   52.9510    4.5460 C.2     1  2SJ1        0.2104
      3 C13         6.1320   52.0800    3.3640 C.3     1  2SJ1        0.0122
      4 N1          5.8110   52.5710    5.7260 N.am    1  2SJ1       -0.3087
      5 C11         5.1650   51.2900    5.9480 C.3     1  2SJ1        0.0493
      6 C14         3.8390   51.1530    5.2440 C.ar    1  2SJ1       -0.0157
      7 C15         3.2130   52.2960    4.9170 C.ar    1  2SJ1       -0.0057
      8 C10         4.9800   51.0260    7.4440 C.3     1  2SJ1       -0.0263
      9 C9          4.3600   49.6620    7.7590 C.3     1  2SJ1       -0.0249
     10 C8          4.7070   48.5800    6.7510 C.ar    1  2SJ1       -0.0324
     11 C7          5.4910   47.4970    7.1330 C.ar    1  2SJ1       -0.0123
     12 C5          5.8160   46.4940    6.2290 C.ar    1  2SJ1        0.1655
     13 C3          5.3670   46.5710    4.9350 C.ar    1  2SJ1        0.2041
     14 C1          4.5730   47.6270    4.5510 C.ar    1  2SJ1        0.1731
     15 O1          4.1450   47.6790    3.2550 O.3     1  2SJ1       -0.4907
     16 C2          4.7090   48.6710    2.3970 C.3     1  2SJ1        0.0790
     17 O2          5.6310   45.5580    4.0590 O.3     1  2SJ1       -0.4885
     18 C4          6.6810   45.6610    3.1560 C.3     1  2SJ1        0.0791
     19 O3          6.5780   45.4050    6.5560 O.3     1  2SJ1       -0.4913
     20 C6          7.1210   45.2290    7.8550 C.3     1  2SJ1        0.0790
     21 C22         4.2440   48.6430    5.4520 C.ar    1  2SJ1        0.0312
     22 C21         3.3820   49.7870    4.9890 C.ar    1  2SJ1       -0.0088
     23 C20         2.2390   49.3840    4.3870 C.ar    1  2SJ1       -0.0500
     24 C19         1.1650   50.1400    3.7880 C.ar    1  2SJ1       -0.0158
     25 C17         1.0440   51.4650    3.7110 C.ar    1  2SJ1        0.1636
     26 C16         1.9460   52.4870    4.2180 C.ar    1  2SJ1        0.2203
     27 O5          1.6230   53.6540    4.0170 O.2     1  2SJ1       -0.2840
     28 O6         -0.0210   51.9230    3.0840 O.3     1  2SJ1       -0.5032
     29 H           6.5967   52.5305    2.5119 H       1  2SJ1        0.0322
     30 H           5.0863   51.9546    3.1753 H       1  2SJ1        0.0322
     31 H           6.5778   51.1253    3.5503 H       1  2SJ1        0.0322
     32 H           5.8796   53.1949    6.4845 H       1  2SJ1        0.1493
     33 H           5.8215   50.5584    5.5253 H       1  2SJ1        0.0548
     34 H           3.6970   53.1623    5.2004 H       1  2SJ1        0.0660
     35 H           4.3429   51.7867    7.8445 H       1  2SJ1        0.0289
     36 H           5.9550   51.0343    7.8847 H       1  2SJ1        0.0289
     37 H           3.2960   49.7728    7.7813 H       1  2SJ1        0.0314
     38 H           4.7606   49.3490    8.7005 H       1  2SJ1        0.0314
     39 H           5.8368   47.4376    8.1035 H       1  2SJ1        0.0658
     40 H           4.2772   48.5862    1.4217 H       1  2SJ1        0.0660
     41 H           5.7673   48.5267    2.3324 H       1  2SJ1        0.0660
     42 H           4.5052   49.6435    2.7940 H       1  2SJ1        0.0660
     43 H           6.7268   44.7738    2.5596 H       1  2SJ1        0.0660
     44 H           7.6005   45.7795    3.6902 H       1  2SJ1        0.0660
     45 H           6.5247   46.5090    2.5225 H       1  2SJ1        0.0660
     46 H           7.6784   44.3163    7.8879 H       1  2SJ1        0.0660
     47 H           6.3269   45.1880    8.5710 H       1  2SJ1        0.0660
     48 H           7.7672   46.0501    8.0857 H       1  2SJ1        0.0660
     49 H           2.1136   48.3603    4.3497 H       1  2SJ1        0.0625
     50 H           0.3996   49.5887    3.3695 H       1  2SJ1        0.0655
     51 H          -0.6490   51.3250    2.7291 H       1  2SJ1        0.2923
@<TRIPOS>BOND
     1     1     2    2
     2     2     3    1
     3     2     4   am
     4     4     5    1
     5     5     6    1
     6     5     8    1
     7     6     7   ar
     8     6    22   ar
     9     7    26   ar
    10     8     9    1
    11     9    10    1
    12    10    21   ar
    13    10    11   ar
    14    11    12   ar
    15    12    13   ar
    16    12    19    1
    17    13    17    1
    18    13    14   ar
    19    14    15    1
    20    14    21   ar
    21    15    16    1
    22    17    18    1
    23    19    20    1
    24    21    22    1
    25    22    23   ar
    26    23    24   ar
    27    24    25   ar
    28    25    28    1
    29    25    26   ar
    30    26    27    2
    31     3    29    1
    32     3    30    1
    33     3    31    1
    34     4    32    1
    35     5    33    1
    36     7    34    1
    37     8    35    1
    38     8    36    1
    39     9    37    1
    40     9    38    1
    41    11    39    1
    42    16    40    1
    43    16    41    1
    44    16    42    1
    45    18    43    1
    46    18    44    1
    47    18    45    1
    48    20    46    1
    49    20    47    1
    50    20    48    1
    51    23    49    1
    52    24    50    1
    53    28    51    1
