# Name: 2SJ
# Created by ModelServer 0.9.11

# model_server_result.job_id: 8tqRjWolPdfGs1d0blypOQ
# model_server_result.datetime_utc: 2024-09-14 20:55:43
# model_server_result.server_version: 0.9.11
# model_server_result.query_name: ligand
# model_server_result.source_id: pdb-bcif
# model_server_result.entry_id: 4lys

# model_server_params.name: atom_site
# model_server_params.value: {"label_asym_id":"D","auth_seq_id":203}

# model_server_stats.io_time_ms: 4
# model_server_stats.parse_time_ms: 28
# model_server_stats.create_model_time_ms: 1
# model_server_stats.query_time_ms: 247
# model_server_stats.encode_time_ms: 0
# model_server_stats.element_count: 28

@<TRIPOS>MOLECULE
2SJ
28 30 1
****
****

@<TRIPOS>ATOM
1 O4 6.919 54.014 4.407 O.2 1 2SJ 0.000
2 C12 6.319 52.951 4.546 C.2 1 2SJ 0.000
3 C13 6.132 52.080 3.364 C.3 1 2SJ 0.000
4 N1 5.811 52.571 5.726 N.am 1 2SJ 0.000
5 C11 5.165 51.290 5.948 C.3 1 2SJ 0.000
6 C14 3.839 51.153 5.244 C.2 1 2SJ 0.000
7 C15 3.213 52.296 4.917 C.2 1 2SJ 0.000
8 C10 4.980 51.026 7.444 C.3 1 2SJ 0.000
9 C9 4.360 49.662 7.759 C.3 1 2SJ 0.000
10 C8 4.707 48.580 6.751 C.ar 1 2SJ 0.000
11 C7 5.491 47.497 7.133 C.ar 1 2SJ 0.000
12 C5 5.816 46.494 6.229 C.ar 1 2SJ 0.000
13 C3 5.367 46.571 4.935 C.ar 1 2SJ 0.000
14 C1 4.573 47.627 4.551 C.ar 1 2SJ 0.000
15 O1 4.145 47.679 3.255 O.3 1 2SJ 0.000
16 C2 4.709 48.671 2.397 C.3 1 2SJ 0.000
17 O2 5.631 45.558 4.059 O.3 1 2SJ 0.000
18 C4 6.681 45.661 3.156 C.3 1 2SJ 0.000
19 O3 6.578 45.405 6.556 O.3 1 2SJ 0.000
20 C6 7.121 45.229 7.855 C.3 1 2SJ 0.000
21 C22 4.244 48.643 5.452 C.ar 1 2SJ 0.000
22 C21 3.382 49.787 4.989 C.2 1 2SJ 0.000
23 C20 2.239 49.384 4.387 C.2 1 2SJ 0.000
24 C19 1.165 50.140 3.788 C.2 1 2SJ 0.000
25 C17 1.044 51.465 3.711 C.2 1 2SJ 0.000
26 C16 1.946 52.487 4.218 C.2 1 2SJ 0.000
27 O5 1.623 53.654 4.017 O.2 1 2SJ 0.000
28 O6 -0.021 51.923 3.084 O.3 1 2SJ 0.000
@<TRIPOS>BOND
1 1 2 2
2 2 3 1
3 2 4 1
4 4 5 1
5 5 6 1
6 5 8 1
7 6 7 2
8 6 22 1
9 7 26 1
10 8 9 1
11 9 10 1
12 10 21 ar
13 10 11 ar
14 11 12 ar
15 12 13 ar
16 12 19 1
17 13 17 1
18 13 14 ar
19 14 15 1
20 14 21 ar
21 15 16 1
22 17 18 1
23 19 20 1
24 21 22 1
25 22 23 2
26 23 24 1
27 24 25 2
28 25 28 1
29 25 26 1
30 26 27 2
@<TRIPOS>SUBSTRUCTURE
1 2SJ 1
